egret/models/tests/transmission_test_instances/dcopf_losses_solution_files/pglib_opf_case3_lmbd_ptdf_dcopf_losses_solution.json
{"elements": {"bus": {"1": {"matpower_bustype": "ref", "area": 1.0, "vm": 1.1, "va": 0.0, "base_kv": 240.0, "zone": 1.0, "v_min": 0.9, "v_max": 1.1, "lmp": 34.7287649962, "pl": 110.00000000000001, "phi_from": {}, "phi_to": {}, "phi_loss_from": {}, "phi_loss_to": {}}, "2": {"matpower_bustype": "PV", "area": 1.0, "vm": 0.9261705368424074, "va": 0.12669049215620656, "base_kv": 240.0, "zone": 1.0, "v_min": 0.9, "v_max": 1.1, "lmp": 32.26566735503195, "pl": 110.00000000000001, "phi_from": {}, "phi_to": {}, "phi_loss_from": {}, "phi_loss_to": {}}, "3": {"matpower_bustype": "PV", "area": 1.0, "vm": 0.9, "va": -0.30136769433968996, "base_kv": 240.0, "zone": 1.0, "v_min": 0.9, "v_max": 1.1, "lmp": 38.385315788774484, "pl": 95.0, "phi_from": {}, "phi_to": {}, "phi_loss_from": {}, "phi_loss_to": {}}}, "load": {"load_1": {"in_service": true, "p_load": 110.00000000000001, "q_load": 40.0, "bus": "1"}, "load_2": {"in_service": true, "p_load": 110.00000000000001, "q_load": 40.0, "bus": "2"}, "load_3": {"in_service": true, "p_load": 95.0, "q_load": 50.0, "bus": "3"}}, "generator": {"1": {"bus": "1", "pg": 135.13074998300002, "qg": 54.69726781885995, "vg": 1.0, "mbase": 100.0, "in_service": true, "p_min": 0.0, "p_max": 2000.0, "q_min": -1000.0, "q_max": 1000.0, "generator_type": "thermal", "p_cost": {"data_type": "cost_curve", "cost_curve_type": "polynomial", "values": {"0": 0.0, "1": 5.0, "2": 0.11}}, "startup_cost": 0.0, "shutdown_cost": 0.0}, "2": {"bus": "2", "pg": 182.739219735, "qg": -8.791134988541954, "vg": 1.0, "mbase": 100.0, "in_service": true, "p_min": 0.0, "p_max": 2000.0, "q_min": -1000.0, "q_max": 1000.0, "generator_type": "thermal", "p_cost": {"data_type": "cost_curve", "cost_curve_type": "polynomial", "values": {"0": 0.0, "1": 1.2, "2": 0.08500000000000002}}, "startup_cost": 0.0, "shutdown_cost": 0.0}, "3": {"bus": "3", "pg": 0.0, "qg": -4.842636765551784, "vg": 1.0, "mbase": 100.0, "in_service": true, "p_min": 0.0, "p_max": 0.0, "q_min": -1000.0, "q_max": 1000.0, "generator_type": "thermal", "p_cost": {"data_type": "cost_curve", "cost_curve_type": "polynomial", "values": {"0": 0.0, "1": 0.0, "2": 0.0}}, "startup_cost": 0.0, "shutdown_cost": 0.0}}, "branch": {"1": {"from_bus": "1", "to_bus": "3", "resistance": 0.065, "reactance": 0.62, "charging_susceptance": 0.45, "branch_type": "line", "rating_long_term": 9000.0, "rating_short_term": 9000.0, "rating_emergency": 9000.0, "in_service": true, "angle_diff_min": -30.0, "angle_diff_max": 30.0, "pf": 42.8433827227, "qf": 10.076336036309558, "pt": -49.14556828305927, "qt": -34.90846563423724, "ptdf_r": {"1": 0.0, "2": 0.34943084810422387, "3": 0.7185337891082749}, "ldf": {"1": 0.0, "2": 0.022774216847830674, "3": 0.0468305658027205}, "ldf_c": -0.010741601918741201}, "2": {"from_bus": "3", "to_bus": "2", "resistance": 0.025, "reactance": 0.75, "charging_susceptance": 0.7, "branch_type": "line", "rating_long_term": 50.0, "rating_short_term": 50.0, "rating_emergency": 50.0, "in_service": true, "angle_diff_min": -30.0, "angle_diff_max": 30.0, "pf": -49.9999999997, "qf": -19.93417113131455, "pt": 46.52525119736147, "qt": -18.313959121065228, "ptdf_r": {"1": 0.0, "2": 0.3554124545033776, "3": -0.25418500394610294}, "ldf": {"1": 0.0, "2": -0.010811004049523208, "3": 0.007731848088523516}, "ldf_c": -0.007244779879776496}, "3": {"from_bus": "1", "to_bus": "2", "resistance": 0.042, "reactance": 0.9, "charging_susceptance": 0.3, "branch_type": "line", "rating_long_term": 9000.0, "rating_short_term": 9000.0, "rating_emergency": 9000.0, "in_service": true, "angle_diff_min": -30.0, "angle_diff_max": 30.0, "pf": -23.640193216, "qf": 4.62093178255039, "pt": 13.481042093852826, "qt": -30.47717586747673, "ptdf_r": {"1": 0.0, "2": 0.6538797471308515, "3": 0.25181588832741864}, "ldf": {"1": 0.0, "2": -0.007773399218935458, "3": -0.0029936168511550108}, "ldf_c": 0.0007433594988154589}}}, "system": {"model_name": "pglib_opf_case3_lmbd", "mpc_version": "'2'", "baseMVA": 100.0, "reference_bus": "1", "reference_bus_angle": 0.0, "total_cost": 5742.033875098799}}
